Version 4
SHEET 1 3236 812
WIRE 3040 16 2976 16
WIRE 3120 16 3040 16
WIRE 96 48 96 -32
WIRE 96 48 -48 48
WIRE 176 48 96 48
WIRE 3120 64 3120 16
WIRE 1408 80 1264 80
WIRE 2448 80 2320 80
WIRE 2656 80 2624 80
WIRE 2768 80 2736 80
WIRE 576 96 480 96
WIRE 3056 112 2976 112
WIRE 96 128 96 48
WIRE 144 128 96 128
WIRE 1888 128 1696 128
WIRE 256 144 256 48
WIRE 256 144 208 144
WIRE 352 144 256 144
WIRE 96 160 -16 160
WIRE 144 160 96 160
WIRE 2320 160 2320 80
WIRE 2336 160 2320 160
WIRE 2624 160 2624 80
WIRE 2640 160 2624 160
WIRE -16 176 -16 160
WIRE 1264 176 1264 80
WIRE 1312 176 1264 176
WIRE 1696 176 1696 128
WIRE 1744 176 1696 176
WIRE 2512 176 2400 176
WIRE 2624 176 2624 160
WIRE 2624 176 2592 176
WIRE 2768 176 2768 80
WIRE 2768 176 2704 176
WIRE 2912 176 2912 112
WIRE 2912 176 2768 176
WIRE 3120 176 3120 160
WIRE 3232 176 3120 176
WIRE 432 192 432 144
WIRE 480 192 480 96
WIRE 480 192 432 192
WIRE 544 192 480 192
WIRE 1408 192 1408 80
WIRE 1408 192 1376 192
WIRE 1568 192 1408 192
WIRE 2336 192 1808 192
WIRE 656 208 656 96
WIRE 656 208 608 208
WIRE 784 208 720 208
WIRE 1184 208 784 208
WIRE 1312 208 1248 208
WIRE 1568 208 1568 192
WIRE 1584 208 1568 208
WIRE 1744 208 1664 208
WIRE 432 224 432 192
WIRE 544 224 512 224
WIRE 2912 224 2912 176
WIRE 3056 224 2976 224
WIRE 2448 256 2448 80
WIRE 2448 256 2400 256
WIRE 96 272 96 160
WIRE 176 272 96 272
WIRE 256 272 256 144
WIRE 1888 272 1888 128
WIRE 1888 272 1808 272
WIRE 3040 304 2976 304
WIRE 3120 304 3120 272
WIRE 3120 304 3040 304
WIRE 512 320 512 224
WIRE 352 352 352 224
WIRE 592 352 352 352
WIRE 448 560 288 560
WIRE 288 624 288 560
WIRE 448 624 288 624
WIRE 528 640 528 560
WIRE 528 640 512 640
WIRE 592 640 592 352
WIRE 592 640 528 640
WIRE 448 656 400 656
WIRE 400 720 400 656
WIRE 400 720 336 720
WIRE 464 720 400 720
WIRE 400 736 400 720
WIRE 368 800 336 800
WIRE 400 800 368 800
FLAG -272 -48 0
FLAG -176 -48 0
FLAG -176 -128 5V
IOPIN -176 -128 In
FLAG -272 -128 -5V
IOPIN -272 -128 In
FLAG 176 176 -5V
IOPIN 176 176 In
FLAG 176 112 5V
IOPIN 176 112 In
FLAG -112 48 0
FLAG -16 256 0
FLAG 576 240 -5V
IOPIN 576 240 In
FLAG 576 176 5V
IOPIN 576 176 In
FLAG 512 320 0
FLAG 784 272 0
FLAG 720 288 0
FLAG 2672 144 5V
IOPIN 2672 144 In
FLAG 32 -32 0
FLAG 1664 272 0
FLAG 1776 224 -5V
IOPIN 1776 224 In
FLAG 1776 160 5V
IOPIN 1776 160 In
FLAG 1808 352 0
FLAG 1248 288 0
FLAG 1344 224 -5V
IOPIN 1344 224 In
FLAG 1344 160 5V
IOPIN 1344 160 In
FLAG 2368 144 5V
IOPIN 2368 144 In
FLAG 2368 208 -5V
IOPIN 2368 208 In
FLAG 2400 336 0
FLAG 288 704 0
FLAG 368 800 0
FLAG 480 608 5V
IOPIN 480 608 In
FLAG 480 672 -5V
IOPIN 480 672 In
FLAG 3040 16 5V
IOPIN 3040 16 In
FLAG 2672 208 -5V
IOPIN 2672 208 In
FLAG 3040 304 -5V
IOPIN 3040 304 In
FLAG 2624 224 0
FLAG 2544 224 5V
IOPIN 2544 224 In
SYMBOL OpAmps\\OP27 176 80 R0
SYMATTR InstName U1
SYMBOL voltage -176 -144 R0
SYMATTR InstName V1
SYMATTR Value 5
SYMBOL voltage -272 -144 R0
SYMATTR InstName V2
SYMATTR Value -5
SYMBOL cap -48 32 R90
WINDOW 0 0 32 VBottom 2
WINDOW 3 32 32 VTop 2
SYMATTR InstName C1
SYMATTR Value 100p
SYMBOL res 272 32 R90
WINDOW 0 0 56 VBottom 2
WINDOW 3 32 56 VTop 2
SYMATTR InstName R1
SYMATTR Value 100k
SYMBOL res 0 272 R180
WINDOW 0 36 76 Left 2
WINDOW 3 36 40 Left 2
SYMATTR InstName R2
SYMATTR Value 100k
SYMBOL res 272 256 R90
WINDOW 0 0 56 VBottom 2
WINDOW 3 32 56 VTop 2
SYMATTR InstName R3
SYMATTR Value 100k
SYMBOL res 448 128 R90
WINDOW 0 0 56 VBottom 2
WINDOW 3 32 56 VTop 2
SYMATTR InstName R4
SYMATTR Value 47k
SYMBOL res 448 208 R90
WINDOW 0 0 56 VBottom 2
WINDOW 3 32 56 VTop 2
SYMATTR InstName R5
SYMATTR Value 47k
SYMBOL OpAmps\\OP27 576 144 R0
SYMATTR InstName U2
SYMBOL res 672 80 R90
WINDOW 0 0 56 VBottom 2
WINDOW 3 32 56 VTop 2
SYMATTR InstName R6
SYMATTR Value 20k
SYMBOL diode 656 224 R270
WINDOW 0 32 32 VTop 2
WINDOW 3 0 32 VBottom 2
SYMATTR InstName N4148
SYMBOL res 704 192 R0
SYMATTR InstName R7
SYMATTR Value 10k
SYMBOL cap 768 208 R0
SYMATTR InstName C2
SYMATTR Value 47n
SYMBOL res 2608 160 R90
WINDOW 0 0 56 VBottom 2
WINDOW 3 32 56 VTop 2
SYMATTR InstName R8
SYMATTR Value 10k
SYMBOL res 2752 64 R90
WINDOW 0 0 56 VBottom 2
WINDOW 3 32 56 VTop 2
SYMATTR InstName R9
SYMATTR Value 40k
SYMBOL OpAmps\\OP37 2672 112 R0
SYMATTR InstName U4
SYMBOL cap 96 -48 R90
WINDOW 0 0 32 VBottom 2
WINDOW 3 32 32 VTop 2
SYMATTR InstName Antenna
SYMATTR Value 23p
SYMBOL res 1680 192 R90
WINDOW 0 0 56 VBottom 2
WINDOW 3 32 56 VTop 2
SYMATTR InstName R10
SYMATTR Value 10k
SYMBOL cap 1648 208 R0
SYMATTR InstName C3
SYMATTR Value 63n
SYMBOL OpAmps\\OP27 1776 128 R0
SYMATTR InstName U5
SYMBOL res 1792 176 R0
SYMATTR InstName R11
SYMATTR Value 40k
SYMBOL res 1792 256 R0
SYMATTR InstName R12
SYMATTR Value 20k
SYMBOL cap 1248 192 R90
WINDOW 0 0 32 VBottom 2
WINDOW 3 32 32 VTop 2
SYMATTR InstName C5
SYMATTR Value 4.7n
SYMBOL res 1232 192 R0
SYMATTR InstName R13
SYMATTR Value 1.7Meg
SYMBOL OpAmps\\OP27 1344 128 R0
SYMATTR InstName U3
SYMBOL OpAmps\\OP27 2368 112 R0
SYMATTR InstName U6
SYMBOL res 2384 160 R0
SYMATTR InstName R14
SYMATTR Value 20k
SYMBOL res 2384 240 R0
SYMATTR InstName R15
SYMATTR Value 5k
SYMBOL res 272 608 R0
SYMATTR InstName R16
SYMATTR Value 47k
SYMBOL res 544 544 R90
WINDOW 0 0 56 VBottom 2
WINDOW 3 32 56 VTop 2
SYMATTR InstName R17
SYMATTR Value 100k
SYMBOL res 320 704 R0
SYMATTR InstName R18
SYMATTR Value 6.3k
SYMBOL cap 384 736 R0
SYMATTR InstName C4
SYMATTR Value 1n
SYMBOL res 512 624 R0
SYMATTR InstName R19
SYMATTR Value 6.3k
SYMBOL cap 528 704 R90
WINDOW 0 0 32 VBottom 2
WINDOW 3 32 32 VTop 2
SYMATTR InstName C6
SYMATTR Value 1n
SYMBOL OpAmps\\opamp2 480 576 R0
SYMATTR InstName U7
SYMATTR Value UA741
SYMBOL res 2960 0 R0
SYMATTR InstName R20
SYMATTR Value 1k
SYMBOL diode 2960 96 R0
SYMATTR InstName D1
SYMATTR Value 1N4148
SYMBOL diode 2960 160 R0
SYMATTR InstName D2
SYMATTR Value 1N4148
SYMBOL res 2960 208 R0
SYMATTR InstName R21
SYMATTR Value 1k
SYMBOL cap 2976 96 R90
WINDOW 0 0 32 VBottom 2
WINDOW 3 32 32 VTop 2
SYMATTR InstName C7
SYMATTR Value 1µ
SYMBOL cap 2976 208 R90
WINDOW 0 0 32 VBottom 2
WINDOW 3 32 32 VTop 2
SYMATTR InstName C8
SYMATTR Value 1µ
SYMBOL npn 3056 64 R0
SYMATTR InstName Q1
SYMATTR Value TIP31C
SYMBOL pnp 3056 272 M180
SYMATTR InstName Q2
SYMATTR Value TIP32C
SYMBOL pot 2528 240 R270
SYMATTR InstName U8
TEXT -312 312 Left 2 !.tran 100ms
TEXT 616 536 Left 2 !.include UA741.301
TEXT 624 488 Left 2 !.include TIP31C.lib
TEXT 624 464 Left 2 !.include TIP32C.lib
TEXT 2592 336 Left 2 !.include pot.sub
