Version 4
SHEET 1 3276 812
WIRE 2256 32 2192 32
WIRE 2336 32 2256 32
WIRE 96 48 96 -32
WIRE 96 48 -48 48
WIRE 176 48 96 48
WIRE 2336 64 2336 32
WIRE 1008 80 864 80
WIRE 2336 80 2336 64
WIRE 576 96 480 96
WIRE 1664 96 1536 96
WIRE 1872 96 1840 96
WIRE 1984 96 1952 96
WIRE 2272 112 2192 112
WIRE 96 128 96 48
WIRE 144 128 96 128
WIRE 1488 128 1296 128
WIRE 256 144 256 48
WIRE 256 144 208 144
WIRE 352 144 256 144
WIRE 96 160 -16 160
WIRE 144 160 96 160
WIRE -16 176 -16 160
WIRE 864 176 864 80
WIRE 912 176 864 176
WIRE 1296 176 1296 128
WIRE 1344 176 1296 176
WIRE 1536 176 1536 96
WIRE 1552 176 1536 176
WIRE 1840 176 1840 96
WIRE 1856 176 1840 176
WIRE 432 192 432 144
WIRE 480 192 480 96
WIRE 480 192 432 192
WIRE 544 192 480 192
WIRE 1008 192 1008 80
WIRE 1008 192 976 192
WIRE 1728 192 1616 192
WIRE 1840 192 1840 176
WIRE 1840 192 1808 192
WIRE 1984 192 1984 96
WIRE 1984 192 1920 192
WIRE 2128 192 2128 112
WIRE 2128 192 1984 192
WIRE 2336 192 2336 160
WIRE 2448 192 2336 192
WIRE 656 208 656 96
WIRE 656 208 608 208
WIRE 784 208 720 208
WIRE 912 208 848 208
WIRE 1008 208 1008 192
WIRE 1104 208 1008 208
WIRE 1344 208 1264 208
WIRE 1488 208 1488 128
WIRE 1552 208 1488 208
WIRE 432 224 432 192
WIRE 544 224 512 224
WIRE 2128 240 2128 192
WIRE 2272 240 2192 240
WIRE 96 272 96 160
WIRE 176 272 96 272
WIRE 256 272 256 144
WIRE 1488 272 1488 208
WIRE 1488 272 1408 272
WIRE 1664 272 1664 96
WIRE 1664 272 1616 272
WIRE 512 320 512 224
WIRE 2256 320 2192 320
WIRE 2336 320 2336 288
WIRE 2336 320 2256 320
WIRE 240 416 80 416
WIRE 80 480 80 416
WIRE 240 480 80 480
WIRE 320 496 320 416
WIRE 320 496 304 496
WIRE 352 496 352 224
WIRE 352 496 320 496
WIRE 240 512 192 512
WIRE 192 576 192 512
WIRE 192 576 128 576
WIRE 256 576 192 576
WIRE 192 592 192 576
WIRE 160 656 128 656
WIRE 192 656 160 656
FLAG 1120 96 0
FLAG 1216 96 0
FLAG 1216 16 5V
IOPIN 1216 16 In
FLAG 1120 16 -5V
IOPIN 1120 16 In
FLAG 176 176 -5V
IOPIN 176 176 In
FLAG 176 112 5V
IOPIN 176 112 In
FLAG -112 48 0
FLAG -16 256 0
FLAG 576 240 -5V
IOPIN 576 240 In
FLAG 576 176 5V
IOPIN 576 176 In
FLAG 512 320 0
FLAG 784 272 0
FLAG 720 288 0
FLAG 1888 160 5V
IOPIN 1888 160 In
FLAG 32 -32 0
FLAG 1264 272 0
FLAG 1376 224 -5V
IOPIN 1376 224 In
FLAG 1376 160 5V
IOPIN 1376 160 In
FLAG 1408 352 0
FLAG 848 288 0
FLAG 944 224 -5V
IOPIN 944 224 In
FLAG 944 160 5V
IOPIN 944 160 In
FLAG 1584 160 5V
IOPIN 1584 160 In
FLAG 1584 224 -5V
IOPIN 1584 224 In
FLAG 1616 352 0
FLAG 80 560 0
FLAG 160 656 0
FLAG 272 464 5V
IOPIN 272 464 In
FLAG 272 528 -5V
IOPIN 272 528 In
FLAG 2256 32 5V
IOPIN 2256 32 In
FLAG 1888 224 -5V
IOPIN 1888 224 In
FLAG 2256 320 -5V
IOPIN 2256 320 In
FLAG 1712 240 5V
IOPIN 1712 240 In
FLAG 1712 320 -5V
IOPIN 1712 320 In
FLAG 2448 272 0
FLAG 1184 272 0
FLAG 2448 192 Vout
IOPIN 2448 192 Out
SYMBOL OpAmps\\OP27 176 80 R0
SYMATTR InstName U1
SYMBOL voltage 1216 0 R0
SYMATTR InstName V1
SYMATTR Value 5
SYMBOL voltage 1120 0 R0
SYMATTR InstName V2
SYMATTR Value -5
SYMBOL cap -48 32 R90
WINDOW 0 0 32 VBottom 2
WINDOW 3 32 32 VTop 2
SYMATTR InstName C1
SYMATTR Value 100p
SYMBOL res 272 32 R90
WINDOW 0 0 56 VBottom 2
WINDOW 3 32 56 VTop 2
SYMATTR InstName R1
SYMATTR Value 100k
SYMBOL res 0 272 R180
WINDOW 0 36 76 Left 2
WINDOW 3 36 40 Left 2
SYMATTR InstName R2
SYMATTR Value 100k
SYMBOL res 272 256 R90
WINDOW 0 0 56 VBottom 2
WINDOW 3 32 56 VTop 2
SYMATTR InstName R3
SYMATTR Value 100k
SYMBOL res 448 128 R90
WINDOW 0 0 56 VBottom 2
WINDOW 3 32 56 VTop 2
SYMATTR InstName R4
SYMATTR Value 47k
SYMBOL res 448 208 R90
WINDOW 0 0 56 VBottom 2
WINDOW 3 32 56 VTop 2
SYMATTR InstName R5
SYMATTR Value 47k
SYMBOL OpAmps\\OP27 576 144 R0
SYMATTR InstName U2
SYMBOL res 672 80 R90
WINDOW 0 0 56 VBottom 2
WINDOW 3 32 56 VTop 2
SYMATTR InstName R6
SYMATTR Value 20k
SYMBOL diode 656 224 R270
WINDOW 0 32 32 VTop 2
WINDOW 3 0 32 VBottom 2
SYMATTR InstName N4148
SYMBOL res 704 192 R0
SYMATTR InstName R7
SYMATTR Value 10k
SYMBOL cap 768 208 R0
SYMATTR InstName C2
SYMATTR Value 47n
SYMBOL res 1824 176 R90
WINDOW 0 0 56 VBottom 2
WINDOW 3 32 56 VTop 2
SYMATTR InstName R8
SYMATTR Value 10k
SYMBOL res 1968 80 R90
WINDOW 0 0 56 VBottom 2
WINDOW 3 32 56 VTop 2
SYMATTR InstName R9
SYMATTR Value 40k
SYMBOL OpAmps\\OP37 1888 128 R0
SYMATTR InstName U4
SYMBOL cap 96 -48 R90
WINDOW 0 0 32 VBottom 2
WINDOW 3 32 32 VTop 2
SYMATTR InstName Antenna
SYMATTR Value 23p
SYMBOL res 1280 192 R90
WINDOW 0 0 56 VBottom 2
WINDOW 3 32 56 VTop 2
SYMATTR InstName R10
SYMATTR Value 6.3k
SYMBOL cap 1248 208 R0
SYMATTR InstName C3
SYMATTR Value 10n
SYMBOL OpAmps\\OP27 1376 128 R0
SYMATTR InstName U5
SYMBOL res 1392 176 R0
SYMATTR InstName R11
SYMATTR Value 40k
SYMBOL res 1392 256 R0
SYMATTR InstName R12
SYMATTR Value 20k
SYMBOL cap 848 192 R90
WINDOW 0 0 32 VBottom 2
WINDOW 3 32 32 VTop 2
SYMATTR InstName C5
SYMATTR Value 4.7n
SYMBOL res 832 192 R0
SYMATTR InstName R13
SYMATTR Value 1.7Meg
SYMBOL OpAmps\\OP27 944 128 R0
SYMATTR InstName U3
SYMBOL OpAmps\\OP27 1584 128 R0
SYMATTR InstName U6
SYMBOL res 1600 176 R0
SYMATTR InstName R14
SYMATTR Value 20k
SYMBOL res 1600 256 R0
SYMATTR InstName R15
SYMATTR Value 5k
SYMBOL res 64 464 R0
SYMATTR InstName R16
SYMATTR Value 47k
SYMBOL res 336 400 R90
WINDOW 0 0 56 VBottom 2
WINDOW 3 32 56 VTop 2
SYMATTR InstName R17
SYMATTR Value 100k
SYMBOL res 112 560 R0
SYMATTR InstName R18
SYMATTR Value 6.3k
SYMBOL cap 176 592 R0
SYMATTR InstName C4
SYMATTR Value 1n
SYMBOL res 304 480 R0
SYMATTR InstName R19
SYMATTR Value 6.3k
SYMBOL cap 320 560 R90
WINDOW 0 0 32 VBottom 2
WINDOW 3 32 32 VTop 2
SYMATTR InstName C6
SYMATTR Value 1n
SYMBOL OpAmps\\opamp2 272 432 R0
SYMATTR InstName U7
SYMATTR Value UA741
SYMBOL res 2176 16 R0
SYMATTR InstName R20
SYMATTR Value 1k
SYMBOL res 2176 224 R0
SYMATTR InstName R21
SYMATTR Value 1k
SYMBOL cap 2192 224 R90
WINDOW 0 0 32 VBottom 2
WINDOW 3 32 32 VTop 2
SYMATTR InstName C8
SYMATTR Value 1µ
SYMBOL npn 2272 64 R0
SYMATTR InstName Q1
SYMATTR Value TIP31C
SYMBOL pnp 2272 288 M180
SYMATTR InstName Q2
SYMATTR Value TIP32C
SYMBOL pot 1728 336 R180
SYMATTR InstName U9
SYMBOL res 2432 176 R0
SYMATTR InstName R22
SYMATTR Value 10
SYMBOL cap 2192 96 R90
WINDOW 0 0 32 VBottom 2
WINDOW 3 32 32 VTop 2
SYMATTR InstName C7
SYMATTR Value 1µ
SYMBOL diode 2176 112 R0
SYMATTR InstName D1
SYMATTR Value 1N4148
SYMBOL diode 2176 176 R0
SYMATTR InstName D2
SYMATTR Value 1N4148
SYMBOL res 1200 192 R90
WINDOW 0 0 56 VBottom 2
WINDOW 3 32 56 VTop 2
SYMATTR InstName R23
SYMATTR Value 6.3k
SYMBOL cap 1168 208 R0
SYMATTR InstName C9
SYMATTR Value 10n
TEXT -312 312 Left 2 !.tran 100ms
TEXT 616 536 Left 2 !.include UA741.301
TEXT 624 488 Left 2 !.include TIP31C.lib
TEXT 624 464 Left 2 !.include TIP32C.lib
TEXT 1808 352 Left 2 !.include pot.sub
